* Auto-generated by spice_v2/generate_spice_dataset.py
* sample_id=4403034 cell=NAND2 corner=ff
.title NAND2 seed characterization sample 4403034
.option method=gear reltol=1e-4 abstol=1e-12 vntol=1e-6
.temp 12.7311
.include "gf180mcu-pdk/libraries/gf180mcu_fd_pr/latest/models/ngspice/design.ngspice"
.param sw_stat_global=0 sw_stat_mismatch=0
.lib "gf180mcu-pdk/libraries/gf180mcu_fd_pr/latest/models/ngspice/sm141064.ngspice" ff

VDD vdd 0 1.97769
Vin in 0 PULSE(0 1.97769 2.000000e-09 1.708518e-10 1.708518e-10 2.000000e-08 4.000000e-08)

Xn1 out in nmid 0 nmos_3p3 W=1.65358u L=0.28u
Xn2 nmid in 0 0 nmos_3p3 W=1.65358u L=0.28u
Xp1 out in vdd vdd pmos_3p3 W=3.79811u L=0.28u
Xp2 out in vdd vdd pmos_3p3 W=3.79811u L=0.28u

Cload out 0 8.705730e-14

.tran 2p 1.200000e-07
.measure tran tphl TRIG v(in) VAL=0.988846 RISE=1 TARG v(out) VAL=0.988846 FALL=1
.measure tran tplh TRIG v(in) VAL=0.988846 FALL=1 TARG v(out) VAL=0.988846 RISE=1
.measure tran i_vdd_avg AVG i(VDD) FROM=5.000000e-09 TO=1.100000e-07
.measure tran power_avg_uW PARAM='-1.97769*i_vdd_avg*1e6'
.end
