* SKY130 cross-PDK protocol-replication testbench
* sample_id=15420003 cell=inv_1 source_cell=sky130_fd_sc_hd__inv_1 corner=ss
.title SKY130 library cell inv_1 A_to_Y
.option scale=1.0u method=gear reltol=1e-4 abstol=1e-12 vntol=1e-6
.temp -38.884761
.param mc_mm_switch=0 mc_pr_switch=0
.include "sky130-pdk/libraries/sky130_fd_pr/latest/cells/nfet_01v8/sky130_fd_pr__nfet_01v8__ss.pm3.spice"
.include "sky130-pdk/libraries/sky130_fd_pr/latest/cells/nfet_01v8/sky130_fd_pr__nfet_01v8__mismatch.corner.spice"
.include "sky130-pdk/libraries/sky130_fd_pr/latest/cells/pfet_01v8_hvt/sky130_fd_pr__pfet_01v8_hvt__ss.pm3.spice"
.include "sky130-pdk/libraries/sky130_fd_pr/latest/cells/pfet_01v8_hvt/sky130_fd_pr__pfet_01v8_hvt__mismatch.corner.spice"
.include "sky130-pdk/libraries/sky130_fd_sc_hd/latest/cells/inv/sky130_fd_sc_hd__inv_1.spice"

VDD vdd 0 1.675341
VIN a 0 PULSE(0 1.675341 24n 6.6834812n 6.6834812n 70n 160n)

XU1 a 0 0 vdd vdd y sky130_fd_sc_hd__inv_1
CLOAD y 0 0.0090154108p

.tran 5p 340n
.measure tran tphl TRIG v(a) VAL=0.83767051 RISE=1 TARG v(y) VAL=0.83767051 FALL=1
.measure tran tplh TRIG v(a) VAL=0.83767051 FALL=1 TARG v(y) VAL=0.83767051 RISE=1
.measure tran i_vdd_avg AVG i(VDD) FROM=10n TO=330n
.measure tran power_avg_uW PARAM='-1.675341*i_vdd_avg*1e6'
.end
