* SKY130 cross-PDK protocol-replication testbench
* sample_id=13000263 cell=xor2_4 source_cell=sky130_fd_sc_hd__xor2_4 corner=ss
.title SKY130 library cell xor2_4 A_to_X__B=0
.option scale=1.0u method=gear reltol=1e-4 abstol=1e-12 vntol=1e-6
.temp 49.082942
.param mc_mm_switch=0 mc_pr_switch=0
.include "sky130-pdk/libraries/sky130_fd_pr/latest/cells/nfet_01v8/sky130_fd_pr__nfet_01v8__ss.pm3.spice"
.include "sky130-pdk/libraries/sky130_fd_pr/latest/cells/nfet_01v8/sky130_fd_pr__nfet_01v8__mismatch.corner.spice"
.include "sky130-pdk/libraries/sky130_fd_pr/latest/cells/pfet_01v8_hvt/sky130_fd_pr__pfet_01v8_hvt__ss.pm3.spice"
.include "sky130-pdk/libraries/sky130_fd_pr/latest/cells/pfet_01v8_hvt/sky130_fd_pr__pfet_01v8_hvt__mismatch.corner.spice"
.include "sky130-pdk/libraries/sky130_fd_sc_hd/latest/cells/xor2/sky130_fd_sc_hd__xor2_4.spice"

VDD vdd 0 1.7429178
VIN a 0 PULSE(0 1.7429178 24n 8.2137037n 8.2137037n 70n 160n)
VFIX_B b 0 0
XU1 a b 0 0 vdd vdd x sky130_fd_sc_hd__xor2_4
CLOAD x 0 0.17831192p

.tran 5p 340n
.measure tran tplh TRIG v(a) VAL=0.8714589 RISE=1 TARG v(x) VAL=0.8714589 RISE=1
.measure tran tphl TRIG v(a) VAL=0.8714589 FALL=1 TARG v(x) VAL=0.8714589 FALL=1
.measure tran i_vdd_avg AVG i(VDD) FROM=10n TO=330n
.measure tran power_avg_uW PARAM='-1.7429178*i_vdd_avg*1e6'
.end
