* SKY130 cross-PDK protocol-replication testbench
* sample_id=26520008 cell=nand2_4 source_cell=sky130_fd_sc_hd__nand2_4 corner=ss
.title SKY130 library cell nand2_4 A_to_Y__B=1
.option scale=1.0u method=gear reltol=1e-4 abstol=1e-12 vntol=1e-6
.temp 7.2686206
.param mc_mm_switch=0 mc_pr_switch=0
.include "/Users/jiaqing/new_paper/sky130-pdk/libraries/sky130_fd_pr/latest/cells/nfet_01v8/sky130_fd_pr__nfet_01v8__ss.pm3.spice"
.include "/Users/jiaqing/new_paper/sky130-pdk/libraries/sky130_fd_pr/latest/cells/nfet_01v8/sky130_fd_pr__nfet_01v8__mismatch.corner.spice"
.include "/Users/jiaqing/new_paper/sky130-pdk/libraries/sky130_fd_pr/latest/cells/pfet_01v8_hvt/sky130_fd_pr__pfet_01v8_hvt__ss.pm3.spice"
.include "/Users/jiaqing/new_paper/sky130-pdk/libraries/sky130_fd_pr/latest/cells/pfet_01v8_hvt/sky130_fd_pr__pfet_01v8_hvt__mismatch.corner.spice"
.include "/Users/jiaqing/new_paper/sky130-pdk/libraries/sky130_fd_sc_hd/latest/cells/nand2/sky130_fd_sc_hd__nand2_4.spice"

VDD vdd 0 1.6287143
VIN a 0 PULSE(0 1.6287143 24n 11.98843n 11.98843n 70n 160n)
VFIX_B b 0 1.6287143
XU1 a b 0 0 vdd vdd y sky130_fd_sc_hd__nand2_4
CLOAD y 0 0.11005672p

.tran 5p 340n
.measure tran tphl TRIG v(a) VAL=0.81435714 RISE=1 TARG v(y) VAL=0.81435714 FALL=1
.measure tran tplh TRIG v(a) VAL=0.81435714 FALL=1 TARG v(y) VAL=0.81435714 RISE=1
.measure tran i_vdd_avg AVG i(VDD) FROM=10n TO=330n
.measure tran power_avg_uW PARAM='-1.6287143*i_vdd_avg*1e6'
.end
