* Auto-generated by spice_v2/generate_spice_dataset.py
* sample_id=4122039 cell=INV corner=typical
.title INV seed characterization sample 4122039
.option method=gear reltol=1e-4 abstol=1e-12 vntol=1e-6
.temp 70.8474
.include "gf180mcu-pdk/libraries/gf180mcu_fd_pr/latest/models/ngspice/design.ngspice"
.param sw_stat_global=0 sw_stat_mismatch=0
.lib "gf180mcu-pdk/libraries/gf180mcu_fd_pr/latest/models/ngspice/sm141064.ngspice" typical

VDD vdd 0 1.67887
Vin in 0 PULSE(0 1.67887 2.000000e-09 1.850746e-10 1.850746e-10 2.000000e-08 4.000000e-08)

Xn1 out in 0 0 nmos_3p3 W=4.34745u L=0.28u
Xp1 out in vdd vdd pmos_3p3 W=10.5087u L=0.28u

Cload out 0 9.023238e-14

.tran 2p 1.200000e-07
.measure tran tphl TRIG v(in) VAL=0.839435 RISE=1 TARG v(out) VAL=0.839435 FALL=1
.measure tran tplh TRIG v(in) VAL=0.839435 FALL=1 TARG v(out) VAL=0.839435 RISE=1
.measure tran i_vdd_avg AVG i(VDD) FROM=5.000000e-09 TO=1.100000e-07
.measure tran power_avg_uW PARAM='-1.67887*i_vdd_avg*1e6'
.end
