* SKY130 cross-PDK protocol-replication testbench
* sample_id=15400042 cell=nand3_4 source_cell=sky130_fd_sc_hd__nand3_4 corner=typical
.title SKY130 library cell nand3_4 A_to_Y__B=1,C=1
.option scale=1.0u method=gear reltol=1e-4 abstol=1e-12 vntol=1e-6
.temp -15.829175
.param mc_mm_switch=0 mc_pr_switch=0
.include "sky130-pdk/libraries/sky130_fd_pr/latest/cells/nfet_01v8/sky130_fd_pr__nfet_01v8__tt.pm3.spice"
.include "sky130-pdk/libraries/sky130_fd_pr/latest/cells/nfet_01v8/sky130_fd_pr__nfet_01v8__mismatch.corner.spice"
.include "sky130-pdk/libraries/sky130_fd_pr/latest/cells/pfet_01v8_hvt/sky130_fd_pr__pfet_01v8_hvt__tt.pm3.spice"
.include "sky130-pdk/libraries/sky130_fd_pr/latest/cells/pfet_01v8_hvt/sky130_fd_pr__pfet_01v8_hvt__mismatch.corner.spice"
.include "sky130-pdk/libraries/sky130_fd_sc_hd/latest/cells/nand3/sky130_fd_sc_hd__nand3_4.spice"

VDD vdd 0 1.8082351
VIN a 0 PULSE(0 1.8082351 24n 3.054794n 3.054794n 70n 160n)
VFIX_B b 0 1.8082351
VFIX_C c 0 1.8082351
XU1 a b c 0 0 vdd vdd y sky130_fd_sc_hd__nand3_4
CLOAD y 0 0.034141008p

.tran 5p 340n
.measure tran tphl TRIG v(a) VAL=0.90411753 RISE=1 TARG v(y) VAL=0.90411753 FALL=1
.measure tran tplh TRIG v(a) VAL=0.90411753 FALL=1 TARG v(y) VAL=0.90411753 RISE=1
.measure tran i_vdd_avg AVG i(VDD) FROM=10n TO=330n
.measure tran power_avg_uW PARAM='-1.8082351*i_vdd_avg*1e6'
.end
