* Released GF180MCU 7-track CDL external-validation testbench
* sample_id=12000107 cell=nand2_4 arc=A1_to_ZN__A2=1 corner=ss
.title GF180MCU library cell nand2_4 A1_to_ZN__A2=1
.option method=gear reltol=1e-4 abstol=1e-12 vntol=1e-6
.temp 125
.include "design.ngspice"
.param sw_stat_global=0 sw_stat_mismatch=0
.lib "sm141064.ngspice" ss

* Copyright 2022 GlobalFoundries PDK Authors
*
* Licensed under the Apache License, Version 2.0 (the "License");
* you may not use this file except in compliance with the License.
* You may obtain a copy of the License at
*
*      http://www.apache.org/licenses/LICENSE-2.0
*
* Unless required by applicable law or agreed to in writing, software
* distributed under the License is distributed on an "AS IS" BASIS,
* WITHOUT WARRANTIES OR CONDITIONS OF ANY KIND, either express or implied.
* See the License for the specific language governing permissions and
* limitations under the License.

.SUBCKT gf180mcu_fd_sc_mcu7t5v0__nand2_4 A1 A2 ZN VDD VNW VPW VSS
X_i_1_3 net_0_0 A2 VSS VPW nmos_6p0 W=8.2e-07 L=6e-07
X_i_0_3 ZN A1 net_0_0 VPW nmos_6p0 W=8.2e-07 L=6e-07
X_i_0_2 net_0_1 A1 ZN VPW nmos_6p0 W=8.2e-07 L=6e-07
X_i_1_2 VSS A2 net_0_1 VPW nmos_6p0 W=8.2e-07 L=6e-07
X_i_1_1 net_0_2 A2 VSS VPW nmos_6p0 W=8.2e-07 L=6e-07
X_i_0_1 ZN A1 net_0_2 VPW nmos_6p0 W=8.2e-07 L=6e-07
X_i_0_0 net_0_3 A1 ZN VPW nmos_6p0 W=8.2e-07 L=6e-07
X_i_1_0 VSS A2 net_0_3 VPW nmos_6p0 W=8.2e-07 L=6e-07
X_i_3_3 ZN A2 VDD VNW pmos_6p0 W=1.13e-06 L=5e-07
X_i_2_3 VDD A1 ZN VNW pmos_6p0 W=1.13e-06 L=5e-07
X_i_2_2 ZN A1 VDD VNW pmos_6p0 W=1.13e-06 L=5e-07
X_i_3_2 VDD A2 ZN VNW pmos_6p0 W=1.13e-06 L=5e-07
X_i_3_1 ZN A2 VDD VNW pmos_6p0 W=1.13e-06 L=5e-07
X_i_2_1 VDD A1 ZN VNW pmos_6p0 W=1.13e-06 L=5e-07
X_i_2_0 ZN A1 VDD VNW pmos_6p0 W=1.13e-06 L=5e-07
X_i_3_0 VDD A2 ZN VNW pmos_6p0 W=1.13e-06 L=5e-07
.ENDS

VDD vdd 0 1.62
VIN a1 0 PULSE(0 1.62 24.0n 25n 25n 70.0n 160.0n)
VFIX_A2 a2 0 1.62
XU1 a1 a2 zn vdd vdd 0 0 gf180mcu_fd_sc_mcu7t5v0__nand2_4
CLOAD zn 0 0.7042p

.tran 5p 340.0n
.measure tran tphl TRIG v(a1) VAL=0.81 RISE=1 TARG v(zn) VAL=0.81 FALL=1
.measure tran tplh TRIG v(a1) VAL=0.81 FALL=1 TARG v(zn) VAL=0.81 RISE=1
.measure tran i_vdd_avg AVG i(VDD) FROM=10n TO=330n
.measure tran power_avg_uW PARAM='-1.62*i_vdd_avg*1e6'
.end
