* Auto-generated by spice_v2/generate_spice_dataset.py
* sample_id=4013007 cell=NAND2 corner=ss
.title NAND2 seed characterization sample 4013007
.option method=gear reltol=1e-4 abstol=1e-12 vntol=1e-6
.temp 21.6014
.include "gf180mcu-pdk/libraries/gf180mcu_fd_pr/latest/models/ngspice/design.ngspice"
.param sw_stat_global=0 sw_stat_mismatch=0
.lib "gf180mcu-pdk/libraries/gf180mcu_fd_pr/latest/models/ngspice/sm141064.ngspice" ss

VDD vdd 0 1.63196
Vin in 0 PULSE(0 1.63196 2.000000e-09 1.187722e-10 1.187722e-10 2.000000e-08 4.000000e-08)

Xn1 out in nmid 0 nmos_3p3 W=1.7894u L=0.28u
Xn2 nmid in 0 0 nmos_3p3 W=1.7894u L=0.28u
Xp1 out in vdd vdd pmos_3p3 W=5.33286u L=0.28u
Xp2 out in vdd vdd pmos_3p3 W=5.33286u L=0.28u

Cload out 0 3.228522e-14

.tran 2p 1.200000e-07
.measure tran tphl TRIG v(in) VAL=0.815981 RISE=1 TARG v(out) VAL=0.815981 FALL=1
.measure tran tplh TRIG v(in) VAL=0.815981 FALL=1 TARG v(out) VAL=0.815981 RISE=1
.measure tran i_vdd_avg AVG i(VDD) FROM=5.000000e-09 TO=1.100000e-07
.measure tran power_avg_uW PARAM='-1.63196*i_vdd_avg*1e6'
.end
