* Auto-generated by spice_v2/generate_spice_dataset.py
* sample_id=4004013 cell=INV corner=ff
.title INV seed characterization sample 4004013
.option method=gear reltol=1e-4 abstol=1e-12 vntol=1e-6
.temp 97.8282
.include "gf180mcu-pdk/libraries/gf180mcu_fd_pr/latest/models/ngspice/design.ngspice"
.param sw_stat_global=0 sw_stat_mismatch=0
.lib "gf180mcu-pdk/libraries/gf180mcu_fd_pr/latest/models/ngspice/sm141064.ngspice" ff

VDD vdd 0 1.80545
Vin in 0 PULSE(0 1.80545 2.000000e-09 4.076162e-11 4.076162e-11 2.000000e-08 4.000000e-08)

Xn1 out in 0 0 nmos_3p3 W=4.97539u L=0.28u
Xp1 out in vdd vdd pmos_3p3 W=13.3956u L=0.28u

Cload out 0 2.659207e-14

.tran 2p 1.200000e-07
.measure tran tphl TRIG v(in) VAL=0.902726 RISE=1 TARG v(out) VAL=0.902726 FALL=1
.measure tran tplh TRIG v(in) VAL=0.902726 FALL=1 TARG v(out) VAL=0.902726 RISE=1
.measure tran i_vdd_avg AVG i(VDD) FROM=5.000000e-09 TO=1.100000e-07
.measure tran power_avg_uW PARAM='-1.80545*i_vdd_avg*1e6'
.end
