* Auto-generated by spice_v2/generate_spice_dataset.py
* sample_id=4222048 cell=INV corner=typical
.title INV seed characterization sample 4222048
.option method=gear reltol=1e-4 abstol=1e-12 vntol=1e-6
.temp 32.0961
.include "gf180mcu-pdk/libraries/gf180mcu_fd_pr/latest/models/ngspice/design.ngspice"
.param sw_stat_global=0 sw_stat_mismatch=0
.lib "gf180mcu-pdk/libraries/gf180mcu_fd_pr/latest/models/ngspice/sm141064.ngspice" typical

VDD vdd 0 1.97082
Vin in 0 PULSE(0 1.97082 2.000000e-09 4.394162e-10 4.394162e-10 2.000000e-08 4.000000e-08)

Xn1 out in 0 0 nmos_3p3 W=3.4681u L=0.28u
Xp1 out in vdd vdd pmos_3p3 W=9.85233u L=0.28u

Cload out 0 2.501559e-14

.tran 2p 1.200000e-07
.measure tran tphl TRIG v(in) VAL=0.985408 RISE=1 TARG v(out) VAL=0.985408 FALL=1
.measure tran tplh TRIG v(in) VAL=0.985408 FALL=1 TARG v(out) VAL=0.985408 RISE=1
.measure tran i_vdd_avg AVG i(VDD) FROM=5.000000e-09 TO=1.100000e-07
.measure tran power_avg_uW PARAM='-1.97082*i_vdd_avg*1e6'
.end
