* SKY130 cross-PDK protocol-replication testbench
* sample_id=14000046 cell=inv_4 source_cell=sky130_fd_sc_hd__inv_4 corner=ff
.title SKY130 library cell inv_4 A_to_Y
.option scale=1.0u method=gear reltol=1e-4 abstol=1e-12 vntol=1e-6
.temp 24.866458
.param mc_mm_switch=0 mc_pr_switch=0
.include "sky130-pdk/libraries/sky130_fd_pr/latest/cells/nfet_01v8/sky130_fd_pr__nfet_01v8__ff.pm3.spice"
.include "sky130-pdk/libraries/sky130_fd_pr/latest/cells/nfet_01v8/sky130_fd_pr__nfet_01v8__mismatch.corner.spice"
.include "sky130-pdk/libraries/sky130_fd_pr/latest/cells/pfet_01v8_hvt/sky130_fd_pr__pfet_01v8_hvt__ff.pm3.spice"
.include "sky130-pdk/libraries/sky130_fd_pr/latest/cells/pfet_01v8_hvt/sky130_fd_pr__pfet_01v8_hvt__mismatch.corner.spice"
.include "sky130-pdk/libraries/sky130_fd_sc_hd/latest/cells/inv/sky130_fd_sc_hd__inv_4.spice"

VDD vdd 0 1.9431832
VIN a 0 PULSE(0 1.9431832 24n 5.4205643n 5.4205643n 70n 160n)

XU1 a 0 0 vdd vdd y sky130_fd_sc_hd__inv_4
CLOAD y 0 0.041892001p

.tran 5p 340n
.measure tran tphl TRIG v(a) VAL=0.9715916 RISE=1 TARG v(y) VAL=0.9715916 FALL=1
.measure tran tplh TRIG v(a) VAL=0.9715916 FALL=1 TARG v(y) VAL=0.9715916 RISE=1
.measure tran i_vdd_avg AVG i(VDD) FROM=10n TO=330n
.measure tran power_avg_uW PARAM='-1.9431832*i_vdd_avg*1e6'
.end
