* Auto-generated by spice_v2/generate_spice_dataset.py
* sample_id=4021028 cell=XOR2 corner=typical
.title XOR2 seed characterization sample 4021028
.option method=gear reltol=1e-4 abstol=1e-12 vntol=1e-6
.temp 75.9947
.include "gf180mcu-pdk/libraries/gf180mcu_fd_pr/latest/models/ngspice/design.ngspice"
.param sw_stat_global=0 sw_stat_mismatch=0
.lib "gf180mcu-pdk/libraries/gf180mcu_fd_pr/latest/models/ngspice/sm141064.ngspice" typical

VDD vdd 0 1.91241
Vin in 0 PULSE(0 1.91241 2.000000e-09 1.532017e-10 1.532017e-10 2.000000e-08 4.000000e-08)
Vb b 0 1.91241

        * XOR2 A1->Z arc with A2 held at VDD:
        * out = in xor b, b = VDD. Internal inverters create abar and bbar.
Xna_inv abar in 0 0 nmos_3p3 W=2.09394u L=0.28u
Xpa_inv abar in vdd vdd pmos_3p3 W=5.7756u L=0.28u
Xnb_inv bbar b 0 0 nmos_3p3 W=2.09394u L=0.28u
Xpb_inv bbar b vdd vdd pmos_3p3 W=5.7756u L=0.28u
Xnpass_a out bbar in 0 nmos_3p3 W=2.61742u L=0.28u
Xppass_a out b in vdd pmos_3p3 W=7.2195u L=0.28u
Xnpass_abar out b abar 0 nmos_3p3 W=2.61742u L=0.28u
Xppass_abar out bbar abar vdd pmos_3p3 W=7.2195u L=0.28u

Cload out 0 9.862497e-14

.tran 2p 1.200000e-07
.measure tran tphl TRIG v(in) VAL=0.956205 RISE=1 TARG v(out) VAL=0.956205 FALL=1
.measure tran tplh TRIG v(in) VAL=0.956205 FALL=1 TARG v(out) VAL=0.956205 RISE=1
.measure tran i_vdd_avg AVG i(VDD) FROM=5.000000e-09 TO=1.100000e-07
.measure tran power_avg_uW PARAM='-1.91241*i_vdd_avg*1e6'
.end
