* Auto-generated by spice_v2/generate_spice_dataset.py
* sample_id=4124001 cell=INV corner=typical
.title INV seed characterization sample 4124001
.option method=gear reltol=1e-4 abstol=1e-12 vntol=1e-6
.temp 87.2542
.include "gf180mcu-pdk/libraries/gf180mcu_fd_pr/latest/models/ngspice/design.ngspice"
.param sw_stat_global=0 sw_stat_mismatch=0
.lib "gf180mcu-pdk/libraries/gf180mcu_fd_pr/latest/models/ngspice/sm141064.ngspice" typical

VDD vdd 0 1.87755
Vin in 0 PULSE(0 1.87755 2.000000e-09 2.090301e-10 2.090301e-10 2.000000e-08 4.000000e-08)

Xn1 out in 0 0 nmos_3p3 W=4.7322u L=0.28u
Xp1 out in vdd vdd pmos_3p3 W=7.37825u L=0.28u

Cload out 0 1.229612e-15

.tran 2p 1.200000e-07
.measure tran tphl TRIG v(in) VAL=0.938773 RISE=1 TARG v(out) VAL=0.938773 FALL=1
.measure tran tplh TRIG v(in) VAL=0.938773 FALL=1 TARG v(out) VAL=0.938773 RISE=1
.measure tran i_vdd_avg AVG i(VDD) FROM=5.000000e-09 TO=1.100000e-07
.measure tran power_avg_uW PARAM='-1.87755*i_vdd_avg*1e6'
.end
